---- qbsp / ericw-tools v0.18.1 ----
Input file: firstMap.map
Output file: firstMap.bsp

---- LoadMapFile ----
*** WARNING 06: No info_player_deathmatch entities in level
           48 faces
            8 brushes
            9 entities
            4 unique texnames
           15 texinfo

Opened WAD: ../wads/START.WAD
Processing hull 0...
---- Brush_LoadEntity ----
            8 brushes
           18 planes
---- CSGFaces ----
           48 brushfaces
           54 csgfaces
           54 mergedfaces
---- SolidBSP ----
           72 split nodes
           23 solid leafs
           50 empty leafs
            0 water leafs
            0 detail leafs
            0 detail illusionary leafs
            0 detail fence leafs
            0 illusionary visblocker leafs
          134 leaffaces
          132 nodefaces
---- Portalize ----
           50 vis leafs
           50 vis clusters
          101 vis portals
---- FillOutside ----
           43 outleafs
---- MergeAll ----
           24 mergefaces
---- SolidBSP ----
           20 split nodes
           15 solid leafs
            6 empty leafs
            0 water leafs
            0 detail leafs
            0 detail illusionary leafs
            0 detail fence leafs
            0 illusionary visblocker leafs
           48 leaffaces
           42 nodefaces
---- Portalize ----
            6 vis leafs
            6 vis clusters
            7 vis portals
---- Tjunc ----
           44 world edges
          156 edge points
           52 edges added by tjunctions
            0 faces added by tjunctions
---- MakeFaceEdges ----
---- GrowRegions ----
Processing hull 1...
Processing hull 2...
*** WARNING 19: No entities in empty space -- no filling performed (hull 2)
---- WriteBSPFile ----
Wrote firstMap.bsp
           45 planes              900
           66 vertexes            792
           20 nodes               480
            6 texinfo             240
           42 faces               840
          140 clipnodes          1120
            7 leafs               196
           48 marksurfaces         96
          220 surfedges           880
          111 edges               444
            4 textures          41396
              lightdata             0
              visdata               0
              entdata             555

0.140 seconds elapsed
Peak memory usage: 592912 (0.6M)
