---- qbsp / ericw-tools v0.18.1 ----
Input file: lava.map
Output file: lava.bsp

---- LoadMapFile ----
         4813 faces
          796 brushes
          106 entities
           33 unique texnames
          833 texinfo

Opened WAD: ../wads/start/START.WAD
Processing hull 0...
---- Brush_LoadEntity ----
          763 brushes
          702 planes
---- CSGFaces ----
         4615 brushfaces
         5676 csgfaces
         4052 mergedfaces
---- SolidBSP ----
         5538 split nodes
         2300 solid leafs
         2930 empty leafs
          309 water leafs
            0 detail leafs
            0 detail illusionary leafs
            0 detail fence leafs
            0 illusionary visblocker leafs
        12473 leaffaces
        11173 nodefaces
---- Portalize ----
*** WARNING 12: New portal was clipped away in CutNodePortals_r near (-1148.381 -32.000 1309.899)
*** WARNING 12: New portal was clipped away in CutNodePortals_r near (-1072.000 -1032.935 1680.000)
*** WARNING 12: New portal was clipped away in CutNodePortals_r near (-1184.569 -1232.065 1680.000)
         3239 vis leafs
         3239 vis clusters
         9964 vis portals
---- FillOutside ----
*** WARNING 10: Reached occupant at (-1848 -1592 216), no filling performed.
Leak file written to lava.pts
---- MakeFaceEdges ----
---- GrowRegions ----
Processing hull 1...
*** WARNING 12: New portal was clipped away in CutNodePortals_r near (-1056.000 119.000 1216.000)
Processing hull 2...
*** WARNING 12: New portal was clipped away in CutNodePortals_r near (-1600.000 96.000 1184.000)
*** WARNING 12: New portal was clipped away in CutNodePortals_r near (-1179.576 -984.066 1586.923)
---- WriteBSPFile ----
Wrote lava.bsp
         1439 planes            28780
        13586 vertexes         163032
         5701 nodes            136824
          697 texinfo           27880
        11421 faces            228420
         5181 clipnodes         41448
         3376 leafs             94528
        12747 marksurfaces      25494
        45053 surfedges        180212
        30106 edges            120424
           33 textures         376816
              lightdata             0
              visdata               0
              entdata            6830

0.756 seconds elapsed
Peak memory usage: 52435782 (50.0M)
