---- qbsp / ericw-tools v0.18.1 ----
Input file: marma.map
Output file: marma.bsp

---- LoadMapFile ----
         2420 faces
          407 brushes
           40 entities
           29 unique texnames
          465 texinfo

Opened WAD: ../wads/start/START.WAD
Processing hull 0...
---- Brush_LoadEntity ----
          400 brushes
          288 planes
---- CSGFaces ----
         2378 brushfaces
         1978 csgfaces
         1650 mergedfaces
---- SolidBSP ----
         2280 split nodes
          920 solid leafs
         1251 empty leafs
          110 water leafs
            0 detail leafs
            0 detail illusionary leafs
            0 detail fence leafs
            0 illusionary visblocker leafs
         4502 leaffaces
         4212 nodefaces
---- Portalize ----
         1361 vis leafs
         1361 vis clusters
         3845 vis portals
---- FillOutside ----
*** WARNING 10: Reached occupant at (-1400 -1304 296), no filling performed.
Leak file written to marma.pts
---- MakeFaceEdges ----
---- GrowRegions ----
Processing hull 1...
*** WARNING 10: Reached occupant at (-984 -1816 232), no filling performed.
Processing hull 2...
*** WARNING 10: Reached occupant at (-984 -1816 232), no filling performed.
*** WARNING 16: Texture 128_blue_1 not found
*** WARNING 16: Texture __TB_empty not found
---- WriteBSPFile ----
Wrote marma.bsp
          524 planes            10480
         4722 vertexes          56664
         2322 nodes             55728
          389 texinfo           15560
         4254 faces             85080
         3911 clipnodes         31288
         1404 leafs             39312
         4544 marksurfaces       9088
        16975 surfedges         67900
        11169 edges             44676
           29 textures         300016
              lightdata             0
              visdata               0
              entdata            2481

0.334 seconds elapsed
Peak memory usage: 21120828 (20.1M)
