---- qbsp / ericw-tools v0.18.1 ----
Input file: marma.map
Output file: marma.bsp

---- LoadMapFile ----
*** WARNING 02: Multiple info_player_start entities
          954 faces
          159 brushes
            4 entities
           18 unique texnames
          227 texinfo

Opened WAD: ../wads/start/START.WAD
Processing hull 0...
---- Brush_LoadEntity ----
          159 brushes
          183 planes
---- CSGFaces ----
          954 brushfaces
         1025 csgfaces
          963 mergedfaces
---- SolidBSP ----
         1664 split nodes
          655 solid leafs
          933 empty leafs
           77 water leafs
            0 detail leafs
            0 detail illusionary leafs
            0 detail fence leafs
            0 illusionary visblocker leafs
         3881 leaffaces
         3635 nodefaces
---- Portalize ----
         1010 vis leafs
         1010 vis clusters
         2721 vis portals
---- FillOutside ----
          382 outleafs
---- MergeAll ----
          984 mergefaces
---- SolidBSP ----
          572 split nodes
          247 solid leafs
          289 empty leafs
           37 water leafs
            0 detail leafs
            0 detail illusionary leafs
            0 detail fence leafs
            0 illusionary visblocker leafs
         2330 leaffaces
         1955 nodefaces
---- Portalize ----
          326 vis leafs
          326 vis clusters
         1033 vis portals
---- Tjunc ----
         1272 world edges
         5702 edge points
         1943 edges added by tjunctions
            0 faces added by tjunctions
---- MakeFaceEdges ----
---- GrowRegions ----
Processing hull 1...
*** WARNING 19: No entities in empty space -- no filling performed (hull 1)
Processing hull 2...
*** WARNING 19: No entities in empty space -- no filling performed (hull 2)
*** WARNING 16: Texture 128_blue_1 not found
*** WARNING 16: Texture 128_blue_3 not found
*** WARNING 16: Texture 128_blue_2 not found
*** WARNING 16: Texture __TB_empty not found
---- WriteBSPFile ----
Wrote marma.bsp
          440 planes             8800
         2297 vertexes          27564
          572 nodes             13728
          217 texinfo            8680
         1955 faces             39100
         3330 clipnodes         26640
          327 leafs              9156
         2330 marksurfaces       4660
         9762 surfedges         39048
         4882 edges             19528
           18 textures         144892
              lightdata             0
              visdata               0
              entdata             301

0.297 seconds elapsed
Peak memory usage: 13198796 (12.6M)
