---- qbsp / ericw-tools v0.18.1 ----
Input file: tutorialmap.map
Output file: tutorialmap.bsp

---- LoadMapFile ----
*** WARNING 06: No info_player_deathmatch entities in level
           36 faces
            6 brushes
            2 entities
            3 unique texnames
           13 texinfo

*** WARNING 01: No valid WAD filenames in worldmodel
Processing hull 0...
---- Brush_LoadEntity ----
            6 brushes
           14 planes
---- CSGFaces ----
           36 brushfaces
           32 csgfaces
           29 mergedfaces
---- SolidBSP ----
           24 split nodes
            6 solid leafs
           19 empty leafs
            0 water leafs
            0 detail leafs
            0 detail illusionary leafs
            0 detail fence leafs
            0 illusionary visblocker leafs
          120 leaffaces
          120 nodefaces
---- Portalize ----
           19 vis leafs
           19 vis clusters
           44 vis portals
---- FillOutside ----
           18 outleafs
---- MergeAll ----
            6 mergefaces
---- SolidBSP ----
            6 split nodes
            6 solid leafs
            1 empty leafs
            0 water leafs
            0 detail leafs
            0 detail illusionary leafs
            0 detail fence leafs
            0 illusionary visblocker leafs
           30 leaffaces
           30 nodefaces
---- Portalize ----
            1 vis leafs
            1 vis clusters
            0 vis portals
---- Tjunc ----
           28 world edges
          104 edge points
           32 edges added by tjunctions
            0 faces added by tjunctions
---- MakeFaceEdges ----
---- GrowRegions ----
Processing hull 1...
*** WARNING 19: No entities in empty space -- no filling performed (hull 1)
Processing hull 2...
*** WARNING 19: No entities in empty space -- no filling performed (hull 2)
*** WARNING 16: Texture city4_7 not found
*** WARNING 16: Texture bricka2_2 not found
*** WARNING 16: Texture wizwood1_3 not found
---- WriteBSPFile ----
Wrote tutorialmap.bsp
           35 planes              700
           48 vertexes            576
            6 nodes               144
            4 texinfo             160
           30 faces               600
           84 clipnodes           672
            2 leafs                56
           30 marksurfaces         60
          152 surfedges           608
           77 edges               308
            3 textures             16
              lightdata             0
              visdata               0
              entdata             113

0.054 seconds elapsed
Peak memory usage: 378260 (369.4k)
